#======================================================================

# CRYSTAL DATA

#----------------------------------------------------------------------

data_VESTA_phase_1


_pd_phase_name                         'graphene+h2o                          '
_cell_length_a                         4.92000
_cell_length_b                         4.92000
_cell_length_c                         2.46000
_cell_angle_alpha                      90
_cell_angle_beta                       90
_cell_angle_gamma                      120
_symmetry_space_group_name_H-M         'P 1'
_symmetry_Int_Tables_number            1

loop_
_symmetry_equiv_pos_as_xyz
   'x, y, z'

loop_
   _atom_site_label
   _atom_site_occupancy
   _atom_site_fract_x
   _atom_site_fract_y
   _atom_site_fract_z
   _atom_site_adp_type
   _atom_site_B_iso_or_equiv
   _atom_site_type_symbol
   C1         1.0     0.000000      0.000000      0.073170     Biso  1.000000 C
   C2         1.0     0.333330      0.166670      0.073170     Biso  1.000000 C
   C3         1.0     0.500000      0.000000      0.073170     Biso  1.000000 C
   C4         1.0     0.833330      0.166670      0.073170     Biso  1.000000 C
   C5         1.0     0.000000      0.500000      0.073170     Biso  1.000000 C
   C6         1.0     0.333330      0.666670      0.073170     Biso  1.000000 C
   C7         1.0     0.500000      0.500000      0.073170     Biso  1.000000 C
   C8         1.0     0.833330      0.666670      0.073170     Biso  1.000000 C
   O1         1.0     0.718424      0.721870      0.578139     Biso  1.000000 O
   H1         1.0     0.339473      0.681045      0.578879     Biso  1.000000 H
   H2         1.0     0.954196      0.476228      0.506022     Biso  1.000000 H
