#======================================================================

# CRYSTAL DATA

#----------------------------------------------------------------------

data_VESTA_phase_1


_pd_phase_name                         'graphene33                            '
_cell_length_a                         7.40490
_cell_length_b                         7.40490
_cell_length_c                         7.99817
_cell_angle_alpha                      90
_cell_angle_beta                       90
_cell_angle_gamma                      120
_symmetry_space_group_name_H-M         'P 1'
_symmetry_Int_Tables_number            1

loop_
_symmetry_equiv_pos_as_xyz
   'x, y, z'

loop_
   _atom_site_label
   _atom_site_occupancy
   _atom_site_fract_x
   _atom_site_fract_y
   _atom_site_fract_z
   _atom_site_adp_type
   _atom_site_B_iso_or_equiv
   _atom_site_type_symbol
   C1         1.0    -0.000000      0.000000      0.022500     Biso  1.000000 C
   C2         1.0     0.222220      0.111110      0.022500     Biso  1.000000 C
   C3         1.0     0.333330     -0.000000      0.022500     Biso  1.000000 C
   C4         1.0     0.555560      0.111110      0.022500     Biso  1.000000 C
   C5         1.0     0.666670      0.000000      0.022500     Biso  1.000000 C
   C6         1.0     0.888890      0.111110      0.022500     Biso  1.000000 C
   C7         1.0    -0.000000      0.333330      0.022500     Biso  1.000000 C
   C8         1.0     0.222220      0.444440      0.022500     Biso  1.000000 C
   C9         1.0     0.333330      0.333330      0.022500     Biso  1.000000 C
   C10        1.0     0.555560      0.444440      0.022500     Biso  1.000000 C
   C11        1.0     0.666670      0.333330      0.022500     Biso  1.000000 C
   C12        1.0     0.888890      0.444440      0.022500     Biso  1.000000 C
   C13        1.0    -0.000000      0.666670      0.022500     Biso  1.000000 C
   C14        1.0     0.222220      0.777780      0.022500     Biso  1.000000 C
   C15        1.0     0.333330      0.666670      0.022500     Biso  1.000000 C
   C16        1.0     0.555560      0.777780      0.022500     Biso  1.000000 C
   C17        1.0     0.666670      0.666670      0.022500     Biso  1.000000 C
   C18        1.0     0.888890      0.777780      0.022500     Biso  1.000000 C
