#======================================================================

# CRYSTAL DATA

#----------------------------------------------------------------------

data_VESTA_phase_1


_pd_phase_name                         'graphite                              '
_cell_length_a                         4.91657
_cell_length_b                         4.91657
_cell_length_c                         3.20241
_cell_angle_alpha                      90
_cell_angle_beta                       90
_cell_angle_gamma                      119.56493
_symmetry_space_group_name_H-M         'P 1'
_symmetry_Int_Tables_number            1

loop_
_symmetry_equiv_pos_as_xyz
   'x, y, z'

loop_
   _atom_site_label
   _atom_site_occupancy
   _atom_site_fract_x
   _atom_site_fract_y
   _atom_site_fract_z
   _atom_site_adp_type
   _atom_site_B_iso_or_equiv
   _atom_site_type_symbol
   C1         1.0    -0.000462      0.000462      0.073170     Biso  1.000000 C
   C2         1.0     0.333792      0.166208      0.073170     Biso  1.000000 C
   C3         1.0     0.499538      0.000462      0.073170     Biso  1.000000 C
   C4         1.0     0.833792      0.166208      0.073170     Biso  1.000000 C
   C5         1.0    -0.000462      0.500462      0.073170     Biso  1.000000 C
   C6         1.0     0.333792      0.666208      0.073170     Biso  1.000000 C
   C7         1.0     0.499538      0.500462      0.073170     Biso  1.000000 C
   C8         1.0     0.833792      0.666208      0.073170     Biso  1.000000 C
