#======================================================================

# CRYSTAL DATA

#----------------------------------------------------------------------

data_VESTA_phase_1


_pd_phase_name                         'graphene\(2)                          '
_cell_length_a                         4.93712
_cell_length_b                         4.93712
_cell_length_c                         9.99911
_cell_angle_alpha                      90
_cell_angle_beta                       90
_cell_angle_gamma                      120.00014
_symmetry_space_group_name_H-M         'P 1'
_symmetry_Int_Tables_number            1

loop_
_symmetry_equiv_pos_as_xyz
   'x, y, z'

loop_
   _atom_site_label
   _atom_site_occupancy
   _atom_site_fract_x
   _atom_site_fract_y
   _atom_site_fract_z
   _atom_site_adp_type
   _atom_site_B_iso_or_equiv
   _atom_site_type_symbol
   C1         1.0    -0.000002      0.000002      0.018000     Biso  1.000000 C
   C2         1.0     0.333332      0.166668      0.018000     Biso  1.000000 C
   C3         1.0     0.499998      0.000002      0.018000     Biso  1.000000 C
   C4         1.0     0.833332      0.166668      0.018000     Biso  1.000000 C
   C5         1.0    -0.000002      0.500002      0.018000     Biso  1.000000 C
   C6         1.0     0.333332      0.666668      0.018000     Biso  1.000000 C
   C7         1.0     0.499998      0.500002      0.018000     Biso  1.000000 C
   C8         1.0     0.833332      0.666668      0.018000     Biso  1.000000 C
