#======================================================================

# CRYSTAL DATA

#----------------------------------------------------------------------

data_VESTA_phase_1


_pd_phase_name                         'graphite                              '
_cell_length_a                         4.92608
_cell_length_b                         4.92608
_cell_length_c                         3.19791
_cell_angle_alpha                      90
_cell_angle_beta                       90
_cell_angle_gamma                      120.00011
_symmetry_space_group_name_H-M         'P 1'
_symmetry_Int_Tables_number            1

loop_
_symmetry_equiv_pos_as_xyz
   'x, y, z'

loop_
   _atom_site_label
   _atom_site_occupancy
   _atom_site_fract_x
   _atom_site_fract_y
   _atom_site_fract_z
   _atom_site_adp_type
   _atom_site_B_iso_or_equiv
   _atom_site_type_symbol
   C1         1.0    -0.000003      0.000003      0.073170     Biso  1.000000 C
   C2         1.0     0.333333      0.166667      0.073170     Biso  1.000000 C
   C3         1.0     0.499997      0.000003      0.073170     Biso  1.000000 C
   C4         1.0     0.833333      0.166667      0.073170     Biso  1.000000 C
   C5         1.0    -0.000003      0.500003      0.073170     Biso  1.000000 C
   C6         1.0     0.333333      0.666667      0.073170     Biso  1.000000 C
   C7         1.0     0.499997      0.500003      0.073170     Biso  1.000000 C
   C8         1.0     0.833333      0.666667      0.073170     Biso  1.000000 C
