#======================================================================

# CRYSTAL DATA

#----------------------------------------------------------------------

data_VESTA_phase_1


_pd_phase_name                         'graphene33\(0\0\-1)                   '
_cell_length_a                         7.38000
_cell_length_b                         7.38000
_cell_length_c                         10.00000
_cell_angle_alpha                      90
_cell_angle_beta                       90
_cell_angle_gamma                      60.00000
_symmetry_space_group_name_H-M         'P 1'
_symmetry_Int_Tables_number            1

loop_
_symmetry_equiv_pos_as_xyz
   'x, y, z'

loop_
   _atom_site_label
   _atom_site_occupancy
   _atom_site_fract_x
   _atom_site_fract_y
   _atom_site_fract_z
   _atom_site_adp_type
   _atom_site_B_iso_or_equiv
   _atom_site_type_symbol
   C1         1.0     0.000055      0.000055      0.000000     Biso  1.000000 C
   C2         1.0     0.111055      0.111055      0.000000     Biso  1.000000 C
   C3         1.0     0.000061      0.333229      0.000000     Biso  1.000000 C
   C4         1.0     0.111136      0.444441      0.000000     Biso  1.000000 C
   C5         1.0    -0.000026      0.666669      0.000000     Biso  1.000000 C
   C6         1.0     0.111049      0.777881      0.000000     Biso  1.000000 C
   C7         1.0     0.333384      0.666564      0.000000     Biso  1.000000 C
   C8         1.0     0.444546      0.777726      0.000000     Biso  1.000000 C
   C9         1.0     0.333229      0.000061      0.000000     Biso  1.000000 C
   C10        1.0     0.444441      0.111136      0.000000     Biso  1.000000 C
   C11        1.0     0.333375      0.333375      0.000000     Biso  1.000000 C
   C12        1.0     0.444426      0.444426      0.000000     Biso  1.000000 C
   C13        1.0     0.666564      0.333384      0.000000     Biso  1.000000 C
   C14        1.0     0.777726      0.444546      0.000000     Biso  1.000000 C
   C15        1.0     0.666684      0.666684      0.000000     Biso  1.000000 C
   C16        1.0     0.777735      0.777735      0.000000     Biso  1.000000 C
   C17        1.0     0.666669     -0.000026      0.000000     Biso  1.000000 C
   C18        1.0     0.777881      0.111049      0.000000     Biso  1.000000 C
